<routes>
        <vType id="typeCar" accel="3.000000" decel="5.000000" sigma="0.0" length="5" minGap="1" speedDev="0" maxSpeed="10.000000" guiShape="passenger"/>
        <route id="WE" edges="wc ce" />
        <route id="WN" edges="wc cn" />
        <route id="WS" edges="wc cs" />
        <route id="EW" edges="ec cw" />
        <route id="EN" edges="ec cn" />
        <route id="ES" edges="ec cs" />
        <route id="NS" edges="nc cs" />
        <route id="NE" edges="nc ce" />
        <route id="NW" edges="nc cw" />
        <route id="SN" edges="sc cn" />
        <route id="SE" edges="sc ce" />
        <route id="SW" edges="sc cw" />
        
    <vehicle id="A0" type="typeCar" route="SN" depart="0.000000" departSpeed="last"  color="1,0,0"/>
    <vehicle id="A1" type="typeCar" route="WE" depart="2.000000" departSpeed="last"  />
    <vehicle id="A2" type="typeCar" route="SN" depart="6.000000" departSpeed="last"  color="1,0,0"/>
    <vehicle id="A3" type="typeCar" route="WE" depart="8.000000" departSpeed="last"  />
    <vehicle id="A4" type="typeCar" route="SN" depart="8.000000" departSpeed="last"  color="1,0,0"/>
    <vehicle id="A5" type="typeCar" route="WE" depart="10.000000" departSpeed="last"  />
    <vehicle id="A6" type="typeCar" route="WE" depart="12.000000" departSpeed="last"  />
    <vehicle id="A7" type="typeCar" route="SN" depart="12.000000" departSpeed="last"  color="1,0,0"/>
    <vehicle id="A8" type="typeCar" route="WE" depart="16.000000" departSpeed="last"  />
    <vehicle id="A9" type="typeCar" route="SN" depart="18.000000" departSpeed="last"  color="1,0,0"/>
    <vehicle id="B10" type="typeCar" route="WE" depart="22.000000" departSpeed="last"  />
    <vehicle id="B11" type="typeCar" route="SN" depart="22.000000" departSpeed="last"  color="1,0,0"/>
    <vehicle id="B12" type="typeCar" route="WE" depart="26.000000" departSpeed="last"  />
    <vehicle id="B13" type="typeCar" route="SN" depart="26.000000" departSpeed="last"  color="1,0,0"/>
    <vehicle id="B14" type="typeCar" route="WE" depart="32.000000" departSpeed="last"  />
    <vehicle id="B15" type="typeCar" route="WE" depart="34.000000" departSpeed="last"  />
    <vehicle id="B16" type="typeCar" route="SN" depart="40.000000" departSpeed="last"  color="1,0,0"/>
    <vehicle id="B17" type="typeCar" route="WE" depart="42.000000" departSpeed="last"  />
    <vehicle id="B18" type="typeCar" route="WE" depart="44.000000" departSpeed="last"  />
    <vehicle id="B19" type="typeCar" route="WE" depart="46.000000" departSpeed="last"  />
    <vehicle id="C20" type="typeCar" route="WE" depart="50.000000" departSpeed="last"  />
    <vehicle id="C21" type="typeCar" route="WE" depart="52.000000" departSpeed="last"  />
    <vehicle id="C22" type="typeCar" route="WE" depart="56.000000" departSpeed="last"  />
    <vehicle id="C23" type="typeCar" route="WE" depart="58.000000" departSpeed="last"  />
    <vehicle id="C24" type="typeCar" route="WE" depart="62.000000" departSpeed="last"  />
    <vehicle id="C25" type="typeCar" route="WE" depart="66.000000" departSpeed="last"  />
    <vehicle id="C26" type="typeCar" route="SN" depart="66.000000" departSpeed="last"  color="1,0,0"/>
    <vehicle id="C27" type="typeCar" route="WE" depart="68.000000" departSpeed="last"  />
    <vehicle id="C28" type="typeCar" route="WE" depart="70.000000" departSpeed="last"  />
    <vehicle id="C29" type="typeCar" route="WE" depart="78.000000" departSpeed="last"  />
    <vehicle id="D30" type="typeCar" route="WE" depart="80.000000" departSpeed="last"  />
    <vehicle id="D31" type="typeCar" route="WE" depart="82.000000" departSpeed="last"  />
    <vehicle id="D32" type="typeCar" route="WE" depart="84.000000" departSpeed="last"  />
    <vehicle id="D33" type="typeCar" route="WE" depart="88.000000" departSpeed="last"  />
    <vehicle id="D34" type="typeCar" route="SN" depart="88.000000" departSpeed="last"  color="1,0,0"/>
    <vehicle id="D35" type="typeCar" route="WE" depart="90.000000" departSpeed="last"  />
    <vehicle id="D36" type="typeCar" route="WE" depart="94.000000" departSpeed="last"  />
    <vehicle id="D37" type="typeCar" route="WE" depart="100.000000" departSpeed="last"  />
    <vehicle id="D38" type="typeCar" route="WE" depart="104.000000" departSpeed="last"  />
    <vehicle id="D39" type="typeCar" route="WE" depart="106.000000" departSpeed="last"  />
    <vehicle id="E40" type="typeCar" route="WE" depart="108.000000" departSpeed="last"  />
    <vehicle id="E41" type="typeCar" route="WE" depart="112.000000" departSpeed="last"  />
    <vehicle id="E42" type="typeCar" route="SN" depart="112.000000" departSpeed="last"  color="1,0,0"/>
    <vehicle id="E43" type="typeCar" route="WE" depart="116.000000" departSpeed="last"  />
    <vehicle id="E44" type="typeCar" route="SN" depart="118.000000" departSpeed="last"  color="1,0,0"/>
    <vehicle id="E45" type="typeCar" route="WE" depart="124.000000" departSpeed="last"  />
    <vehicle id="E46" type="typeCar" route="WE" depart="126.000000" departSpeed="last"  />
    <vehicle id="E47" type="typeCar" route="WE" depart="130.000000" departSpeed="last"  />
    <vehicle id="E48" type="typeCar" route="SN" depart="130.000000" departSpeed="last"  color="1,0,0"/>
    <vehicle id="E49" type="typeCar" route="WE" depart="134.000000" departSpeed="last"  />
    <vehicle id="F50" type="typeCar" route="WE" depart="136.000000" departSpeed="last"  />
    <vehicle id="F51" type="typeCar" route="SN" depart="138.000000" departSpeed="last"  color="1,0,0"/>
    <vehicle id="F52" type="typeCar" route="WE" depart="140.000000" departSpeed="last"  />
    <vehicle id="F53" type="typeCar" route="WE" depart="142.000000" departSpeed="last"  />
    <vehicle id="F54" type="typeCar" route="WE" depart="144.000000" departSpeed="last"  />
    <vehicle id="F55" type="typeCar" route="WE" depart="146.000000" departSpeed="last"  />
    <vehicle id="F56" type="typeCar" route="WE" depart="148.000000" departSpeed="last"  />
    <vehicle id="F57" type="typeCar" route="WE" depart="152.000000" departSpeed="last"  />
    <vehicle id="F58" type="typeCar" route="WE" depart="154.000000" departSpeed="last"  />
    <vehicle id="F59" type="typeCar" route="WE" depart="156.000000" departSpeed="last"  />
    <vehicle id="G60" type="typeCar" route="WE" depart="158.000000" departSpeed="last"  />
    <vehicle id="G61" type="typeCar" route="WE" depart="160.000000" departSpeed="last"  />
    <vehicle id="G62" type="typeCar" route="WE" depart="162.000000" departSpeed="last"  />
    <vehicle id="G63" type="typeCar" route="SN" depart="164.000000" departSpeed="last"  color="1,0,0"/>
    <vehicle id="G64" type="typeCar" route="WE" depart="166.000000" departSpeed="last"  />
    <vehicle id="G65" type="typeCar" route="WE" depart="168.000000" departSpeed="last"  />
    <vehicle id="G66" type="typeCar" route="SN" depart="168.000000" departSpeed="last"  color="1,0,0"/>
    <vehicle id="G67" type="typeCar" route="WE" depart="172.000000" departSpeed="last"  />
    <vehicle id="G68" type="typeCar" route="SN" depart="174.000000" departSpeed="last"  color="1,0,0"/>
    <vehicle id="G69" type="typeCar" route="WE" depart="176.000000" departSpeed="last"  />
    <vehicle id="H70" type="typeCar" route="WE" depart="178.000000" departSpeed="last"  />
    <vehicle id="H71" type="typeCar" route="SN" depart="182.000000" departSpeed="last"  color="1,0,0"/>
    <vehicle id="H72" type="typeCar" route="WE" depart="184.000000" departSpeed="last"  />
    <vehicle id="H73" type="typeCar" route="WE" depart="188.000000" departSpeed="last"  />
    <vehicle id="H74" type="typeCar" route="WE" depart="190.000000" departSpeed="last"  />
    <vehicle id="H75" type="typeCar" route="WE" depart="192.000000" departSpeed="last"  />
    <vehicle id="H76" type="typeCar" route="WE" depart="194.000000" departSpeed="last"  />
    <vehicle id="H77" type="typeCar" route="WE" depart="196.000000" departSpeed="last"  />
    <vehicle id="H78" type="typeCar" route="SN" depart="196.000000" departSpeed="last"  color="1,0,0"/>
</routes>
